dss/HB873/hb873.dss
Clear

!----------Barramento de Entrada do Circuito--------

new circuit.REDE1

set maxcontroliter=100000

~ basekv=13.8 Bus1=MT1 pu=1.01 Phases=3 MVAsc1=600e10 MVAsc3=600e10

new LoadShape.COM-Tipo1 npts=1440 minterval=1 csvfile=curvas/COM-Tipo1-SE.txt action = normalize
new LoadShape.COM-Tipo2 npts=1440 minterval=1 csvfile=curvas/COM-Tipo2-SE.txt action = normalize
new LoadShape.COM-Tipo3 npts=1440 minterval=1 csvfile=curvas/COM-Tipo3-SE.txt action = normalize
new LoadShape.COM-Tipo4 npts=1440 minterval=1 csvfile=curvas/COM-Tipo4-SE.txt action = normalize
new LoadShape.COM-Tipo5 npts=1440 minterval=1 csvfile=curvas/COM-Tipo5-SE.txt action = normalize
new LoadShape.COM-Tipo6 npts=1440 minterval=1 csvfile=curvas/COM-Tipo6-SE.txt action = normalize
new LoadShape.COM-Tipo7 npts=1440 minterval=1 csvfile=curvas/COM-Tipo7-SE.txt action = normalize
new LoadShape.COM-Tipo8 npts=1440 minterval=1 csvfile=curvas/COM-Tipo8-SE.txt action = normalize
new LoadShape.COM-Tipo9 npts=1440 minterval=1 csvfile=curvas/COM-Tipo9-SE.txt action = normalize
new LoadShape.COM-Tipo10 npts=1440 minterval=1 csvfile=curvas/COM-Tipo10-SE.txt action = normalize

new LoadShape.RES-Tipo1 npts=1440 minterval=1 csvfile=curvas/RES-Tipo1-SE.txt action = normalize
new LoadShape.RES-Tipo2 npts=1440 minterval=1 csvfile=curvas/RES-Tipo2-SE.txt action = normalize
new LoadShape.RES-Tipo3 npts=1440 minterval=1 csvfile=curvas/RES-Tipo3-SE.txt action = normalize
new LoadShape.RES-Tipo4 npts=1440 minterval=1 csvfile=curvas/RES-Tipo4-SE.txt action = normalize
new LoadShape.RES-Tipo5 npts=1440 minterval=1 csvfile=curvas/RES-Tipo5-SE.txt action = normalize
new LoadShape.RES-Tipo6 npts=1440 minterval=1 csvfile=curvas/RES-Tipo6-SE.txt action = normalize
new LoadShape.RES-Tipo7 npts=1440 minterval=1 csvfile=curvas/RES-Tipo7-SE.txt action = normalize
new LoadShape.RES-Tipo8 npts=1440 minterval=1 csvfile=curvas/RES-Tipo8-SE.txt action = normalize
new LoadShape.RES-Tipo9 npts=1440 minterval=1 csvfile=curvas/RES-Tipo9-SE.txt action = normalize
new LoadShape.RES-Tipo10 npts=1440 minterval=1 csvfile=curvas/RES-Tipo10-SE.txt action = normalize

new LoadShape.IP npts=96 minterval=15 csvfile=curvas/IP.txt action = normalize

!-------------------- Voltvar Curve --------------------------------

new Xycurve.vv_curve npts=6 Xarray=[0.5 0.88 0.99 1.01 1.1 1.5] Yarray=[1 1 0 0 -1 -1]


!------------------Shape do gerador FV e cargas resid�ncias -----------------

new loadshape.PVshape1 npts=1440 minterval=1 csvfile=pvperfis/pv_chuva.txt 
new loadshape.PVshape2 npts=1440 minterval=1 csvfile=pvperfis/pv_nubla.txt 
new loadshape.PVshape3 npts=1440 minterval=1 csvfile=pvperfis/pv_variabi.txt action=normalize
new loadshape.PVshape4 npts=1440 minterval=1 csvfile=pvperfis/pv_van2.txt action=normalize
new loadshape.PVshape5 npts=1440 minterval=1 csvfile=pvperfis/pv_ensolafinal3.txt action=normalize



!------------------------- Cables definition ---------------------------------

new wiredata.4/0_AWG_CAA Diam=14.3 GMRac=0.0055 Rac=0.380 Emergamps=365
~ Runits=km Radunits=mm gmrunits=m

new wiredata.2_AWG_CAA Diam=8.01 GMRac=0.00308 Rac=1.102  Emergamps=175
~ Runits=km Radunits=mm gmrunits=m

new wiredata.1000013 Runits=km Rdc=0.64 GMRunits=m Radunits=m Diam=0.02770 Emergamps=152 !50mm2  PE fase  NEXANS/Equatorial Par�

new wiredata.1/0_AWG_CAA Runits=km Rac=0.709 GMRunits=m GMRac=0.00388   Radunits=m Diam=0.01011 Emergamps=235   !1/0

new wiredata.4_AWG_CAA Runits=km Rac=1.551 GMRunits=m GMRac=0.00244   Radunits=m Diam=0.00636 Emergamps=130 !4 

new linegeometry.43-ABCN nconds=4.000000 nphases=3.000000
~ cond=1.000000 wire=2_AWG_CAA units=m x=-1.1 h=11
~ cond=2.000000 wire=2_AWG_CAA units=m x=-0.4   h=11
~ cond=3.000000 wire=2_AWG_CAA units=m x=0.4  h=11
~ cond=4.000000 wire=2_AWG_CAA units=m x=1.1  h=11
Reduce=Yes

new linegeometry.61-ABCN nconds=4.000000 nphases=3.000000
~ cond=1.000000 wire=1/0_AWG_CAA units=m x=-1.1 h=11
~ cond=2.000000 wire=1/0_AWG_CAA units=m x=-0.4 h=11
~ cond=3.000000 wire=1/0_AWG_CAA units=m x=0.4 h=11
~ cond=4.000000 wire=1/0_AWG_CAA units=m x=1.1 h=11
Reduce=Yes

new linegeometry.200041-ABCN nconds=4.000000 nphases=3.000000
~ cond=1.000000 wire=4/0_AWG_CAA units=m x=-1.1 h=11
~ cond=2.000000 wire=4/0_AWG_CAA units=m x=-0.4 h=11
~ cond=3.000000 wire=4/0_AWG_CAA units=m x=0.4 h=11
~ cond=4.000000 wire=4/0_AWG_CAA units=m x=1.1 h=11
Reduce=Yes

new linegeometry.QUAD-50 nconds=4.000000 nphases=3.000000
~ cond=1.000000 wire=1000013 units=cm x=0 h=601.001
~ cond=2.000000 wire=1000013 units=cm x=-3. h=602.002
~ cond=3.000000 wire=1000013 units=cm x=3. h=603.003
~ cond=4.000000 wire=1000013 units=cm x=0 h=604.004
Reduce=Yes

new linegeometry.11-ABCN nconds=4.000000 nphases=3.000000
~ cond=1.000000 wire=4_AWG_CAA units=m x=0 h=8.8
~ cond=2.000000 wire=4_AWG_CAA units=m x=0 h=8.6
~ cond=3.000000 wire=4_AWG_CAA units=m x=0 h=8.4
~ cond=4.000000 wire=4_AWG_CAA units=m x=0 h=9
Reduce=Yes

new Linecode.4604-ABCN nphases=3  Units=km Emergamps=221
~ Rmatrix=[0.739464 | 0.296197 0.739464 | 0.296197 0.296197 0.739464]
~ Xmatrix=[0.292891 | 0.194992 0.292891 | 0.159408 0.194991 0.292890]
~ Cmatrix=[37.0584  |-14.2316  42.4493  |1.66964  -14.2304  37.0628  ]
~ Cmatrix=[0.000000 | 0.000000 0.000000 | 0.000000 0.000000 0.000000]

new Linecode.4504-ABCN nphases=3  Units=km Emergamps=143
~ Rmatrix=[1.266950 | 0.398811 1.266950 | 0.398811 0.398811 1.266950]
~ Xmatrix=[0.495628 | 0.396758 0.495628 | 0.361393 0.396757 0.495627]
~ Cmatrix=[0.000000 |-13.9703  41.9075  |1.47344  -13.9694  36.6425  ]
!~ Cmatrix=[0.000000 | 0.000000 0.000000 | 0.000000 0.000000 0.000000]

new Linecode.38-ABC nphases=3  Units=km Emergamps=266
~ Rmatrix=[0.326426 | 0.0579849 0.326426 | 0.0579848 0.0579849 0.326426]
~ Xmatrix=[0.930153 | 0.5279610 0.930153 | 0.4756990 0.5279610 0.930153]
~ Cmatrix=[0.000000 | 0.0000000 0.000000 | 0.0000000 0.0000000 0.000000]
!~ Cmatrix=[8.08028  |-2.55582  8.62172  |-1.46875  -2.55582  8.08028  ]

new Linecode.261-ABCN nphases=3  Units=km Emergamps=229
~ Rmatrix=[0.446382 | 0.192914 0.446382 | 0.1929140 0.192914 0.446381]
~ Xmatrix=[0.207868 | 0.112708 0.207868 | 0.0765195 0.112708 0.207867]
~ Cmatrix=[38.2072  |-15.0732  44.0314  |2.17022  -15.0716  38.2131  ]
!~ Cmatrix=[0.000000 | 0.000000 0.000000 | 0.0000000 0.000000 0.000000]


!---------------Lines---------------

new line.1743000 	Length=0.03673661829 Units=km Bus1=C110661381	Bus2=C110660517 	linecode=261-ABCN  		! 261-ABCN

new line.1743001 	Length=0.02623463434 Units=km Bus1=C110660248	Bus2=C112935276	  	linecode=4604-ABCN	    ! 4604-ABCN

new line.1743002 	Length=0.02538698237 Units=km Bus1=C110660517	Bus2=C110660248	   	linecode=261-ABCN		! 261-ABCN

new line.1743003 	Geometry=43-ABCN Length=0.03214575947 Units=km Bus1=C110659558	Bus2=C110660628	        	! 43-ABCN

new line.1743004 	Length=0.0340188849  Units=km Bus1=C110660935  Bus2=C110659558		Geometry=61-ABCN	! 61-ABCN

new line.1743005 	Length=0.04080776413 Units=km Bus1=C110659943  Bus2=C110660935		Geometry=61-ABCN	! 61-ABCN

new line.1743006 	Length=0.02493906354 Units=km Bus1=C112935276  Bus2=C110660194 		linecode=4604-ABCN   	! 4604-ABCN

new line.1743007 	Length=0.026677274 	 Units=km Bus1=C110660194  Bus2=C112935277      linecode=4604-ABCN  	! 4604-ABCN

new line.1743008 	Length=0.03058343524 Units=km Bus1=C110659558  Bus2=C110661381 		linecode=261-ABCN 		! 261-ABCN

new line.1743009 	Geometry=QUAD-50 Length=0.020844 Units=km Bus1=C110660935 Bus2=HB873RES1 

new line.1743010 	Geometry=QUAD-50 Length=0.019224 Units=km Bus1=C110661381 Bus2=HB873RES2 

new line.1743011 	Geometry=QUAD-50 Length=0.027324 Units=km Bus1=C110660628 Bus2=HB873RES3 

new line.1743012 	Geometry=QUAD-50 Length=0.012204 Units=km Bus1=C110660248 Bus2=HB873RES4 

new line.1743013 	Geometry=QUAD-50 Length=0.016632 Units=km Bus1=C110660517 Bus2=HB873RES5 

new line.1743014 	Geometry=QUAD-50 Length=0.017388 Units=km Bus1=C110660194 Bus2=HB873RES6 

new line.1743015 	Geometry=QUAD-50 Length=0.012204 Units=km Bus1=C110660517 Bus2=HB873RES7 

new line.1743016 	Geometry=QUAD-50 Length=0.028512 Units=km Bus1=C110660628 Bus2=HB873RES8 




!--------------Transformadores Trif�sicos--------------


new transformer.HB873 phases=3 Windings=2 XHL=3.5 %loadloss=1.556 %noloadloss=0.3233
~ wdg=1.000000 bus=MT1.1.2.3 conn=delta kV=13.800000 kVa=150 tap = 1.0
~ wdg=2.000000 bus=C110660517.1.2.3.0 conn=wye kV=0.220000 kVa=150 tap = 1.0



!------------------Loads-----------------

!Street Lighting

new load.IP1   phases=1 bus1=C110660517.1.2 kv=0.22 kw=0.275 	pf=0.92 conn=delta status=variable daily=IP     
new load.IP2   phases=1 bus1=C110660248.2.3 kv=0.22 kw=0.275  	pf=0.92 conn=delta status=variable daily=IP    
new load.IP3   phases=1 bus1=C110659558.3.1 kv=0.22 kw=0.275 	pf=0.92 conn=delta status=variable daily=IP
new load.IP4   phases=1 bus1=C110660935.1.2 kv=0.22 kw=0.275  	pf=0.92 conn=delta status=variable daily=IP
new load.IP5   phases=1 bus1=C110661381.2.3 kv=0.22 kw=0.275 	pf=0.92 conn=delta status=variable daily=IP
new load.IP6   phases=1 bus1=C112935277.3.1 kv=0.22 kw=0.275  	pf=0.92 conn=delta status=variable daily=IP

!Residential Load


new load.carga1   phases=3 bus1=HB873RES1   kV=0.220  kW=1.8743   		pf=0.92 model=1 conn=wye status=variable daily=RES-Tipo2    	! RES - Tipo2
new load.carga2   phases=3 bus1=HB873RES2   kV=0.220  kW=3.01354167     pf=0.92 model=1 conn=wye status=variable daily=RES-Tipo2	    ! RES - Tipo2
new load.carga3   phases=3 bus1=HB873RES3   kV=0.220  kW=3.58154762     pf=0.92 model=1 conn=wye status=variable daily=RES-Tipo2	    ! RES - Tipo2
new load.carga4   phases=3 bus1=HB873RES4   kV=0.220  kW=2.3457    		pf=0.92 model=1 conn=wye status=variable daily=RES-Tipo2	    ! RES - Tipo2
new load.carga5   phases=3 bus1=HB873RES5   kV=0.220  kW=2.7827381      pf=0.92 model=1 conn=wye status=variable daily=RES-Tipo2      	! RES - Tipo2
new load.carga6   phases=3 bus1=HB873RES6   kV=0.220  kW=1.19002976     pf=0.92 model=1 conn=wye status=variable daily=RES-Tipo2     	! RES - Tipo2
new load.carga7   phases=3 bus1=HB873RES7   kV=0.220  kW=0.58764881  	pf=0.92 model=1 conn=wye status=variable daily=COM-Tipo3 		! COM - Tipo3
new load.carga8   phases=3 bus1=HB873RES8   kV=0.220  kW=0.81354167		pf=0.92 model=1 conn=wye status=variable daily=RES-Tipo2		! RES - Tipo2


!------------------ Measures -----------------

!new energymeter.busbar 		element=transformer.HB873   	terminal=1
!new monitor.trafop          element=transformer.HB873    	terminal=1   mode=1  ppolar=yes
!new monitor.trafop2         element=transformer.HB873    	terminal=1   mode=1  ppolar=no
!new monitor.trafo_v       	element=transformer.HB873     	terminal=2   mode=0  ppolar=no


!set voltagebases=[13.8 0.220]
!calcvoltagebases


!batchedit load..* Vmin=0.7 Vmaxpu=1.3 Vminpu=0.70

!solve

!------------- Plots----------------------------

!export monitors carga1
!plot monitor object=carga1 channels=(1 3 5) bases = [127 127 127]

!export monitors carga1